Version 4
SHEET 1 2660 680
WIRE 240 -416 112 -416
WIRE 528 -400 352 -400
WIRE 112 -384 112 -416
WIRE 240 -384 112 -384
WIRE 112 -320 112 -384
WIRE 112 -192 112 -240
FLAG 112 -192 0
FLAG 528 -400 OUT
SYMBOL voltage 112 -336 R0
WINDOW 123 0 0 Left 0
WINDOW 39 0 0 Left 0
SYMATTR InstName V1
SYMATTR Value SINE(6 6 50)
SYMBOL CD4093B 288 -464 R0
SYMATTR InstName U3
TEXT 112 -488 Left 2 !.include lib/sub/CD4000.lib
TEXT -16 -160 Left 2 !.tran 0.5
