Version 4
SHEET 1 3628 680
WIRE 1248 -432 752 -432
WIRE 1248 -320 1248 -432
WIRE 752 -224 752 -432
WIRE 752 -224 -16 -224
WIRE 1248 -160 1248 -240
WIRE -16 -144 -16 -224
WIRE 192 -144 -16 -144
WIRE 752 -128 752 -224
WIRE 192 -96 192 -144
WIRE -16 -80 -16 -144
WIRE 416 -80 416 -128
WIRE 496 -80 496 -128
WIRE 416 -32 416 -80
WIRE 496 -32 496 -80
WIRE -16 16 -16 -16
WIRE 64 16 -16 16
WIRE 192 16 192 -32
WIRE 192 16 128 16
WIRE 304 16 192 16
WIRE 416 16 416 -32
WIRE 416 16 368 16
WIRE 496 16 496 -32
WIRE 752 16 752 -48
WIRE 752 16 496 16
WIRE 1248 16 1248 -80
WIRE 1248 16 752 16
WIRE -16 64 -16 16
FLAG 192 -144 VCC
IOPIN 192 -144 In
FLAG -16 64 0
SYMBOL zener 208 -32 R180
WINDOW 0 28 71 Left 2
WINDOW 3 -156 69 Left 2
SYMATTR InstName D5
SYMATTR Value BZX84B12VLY
SYMATTR Description Diode
SYMATTR Type diode
SYMBOL res 512 -96 R90
WINDOW 0 29 -12 VBottom 2
WINDOW 3 0 121 VTop 2
SYMATTR InstName R6
SYMATTR Value 2k
SYMBOL res 512 -144 R90
WINDOW 0 33 -9 VBottom 2
WINDOW 3 0 122 VTop 2
SYMATTR InstName R7
SYMATTR Value 2k
SYMBOL res 512 -48 R90
WINDOW 0 27 -12 VBottom 2
WINDOW 3 0 121 VTop 2
SYMATTR InstName R8
SYMATTR Value 2k
SYMBOL res 512 0 R90
WINDOW 0 25 -14 VBottom 2
WINDOW 3 0 121 VTop 2
SYMATTR InstName R9
SYMATTR Value 2k
SYMBOL polcap -32 -80 R0
WINDOW 3 24 56 Left 2
SYMATTR Value 100µ
SYMATTR InstName C2
SYMATTR Description Capacitor
SYMATTR Type cap
SYMATTR SpiceLine V=16 Irms=280m Rser=0.11 Lser=3.5n mfg="Würth Elektronik" pn="860040373002 WCAP-ATUL 6,3x11" type="Al electrolytic"
SYMBOL cap 368 0 R90
WINDOW 0 0 32 VBottom 2
WINDOW 3 32 32 VTop 2
SYMATTR InstName C3
SYMATTR Value 0.22µ
SYMATTR SpiceLine V=400 Irms=0 Rser=0.0381 Lser=11.951n mfg="Würth Elektronik" pn="890283425002CS WCAP-FTBE 15 x 18 x 11 x 5" type="Box"
SYMBOL diode 64 32 R270
WINDOW 0 32 32 VTop 2
WINDOW 3 0 32 VBottom 2
SYMATTR InstName D4
SYMATTR Value 1N4148
SYMBOL voltage 752 -144 R0
WINDOW 123 0 0 Left 0
WINDOW 39 0 0 Left 0
SYMATTR InstName V1
SYMATTR Value SINE(0 311.127 50)
SYMBOL res 1232 -336 R0
SYMATTR InstName RL
SYMATTR Value 1k2
SYMBOL ind 1232 -176 R0
SYMATTR InstName L2
SYMATTR Value 5H
TEXT -16 -272 Left 2 !.tran 1
TEXT -16 -344 Left 2 !.include lib/sub/thyristr.lib
TEXT -16 -416 Left 2 !.include lib/sub/CD4000.lib
TEXT -16 -448 Left 2 !.sympath lib/sym
TEXT 1160 -200 Left 2 ;Load
