Version 4
SHEET 1 3628 680
WIRE 1248 -432 752 -432
WIRE 1248 -320 1248 -432
WIRE -144 -224 -272 -224
WIRE 752 -224 752 -432
WIRE 752 -224 -144 -224
WIRE -144 -176 -144 -224
WIRE 1248 -160 1248 -240
WIRE -272 -144 -272 -224
WIRE -64 -144 -272 -144
WIRE 752 -128 752 -224
WIRE -64 -96 -64 -144
WIRE -272 -80 -272 -144
WIRE -272 16 -272 -16
WIRE -192 16 -272 16
WIRE -64 16 -64 -32
WIRE -64 16 -128 16
WIRE -16 16 -64 16
WIRE 64 16 48 16
WIRE 176 16 144 16
WIRE 288 16 256 16
WIRE 400 16 368 16
WIRE 592 16 480 16
WIRE 752 16 752 -48
WIRE 752 16 672 16
WIRE 1248 16 1248 -80
WIRE 1248 16 752 16
WIRE 656 80 656 64
WIRE 608 128 608 64
WIRE 608 256 608 208
WIRE 0 0 0 0
FLAG -64 -144 VCC
IOPIN -64 -144 In
FLAG -144 -176 0
FLAG 608 256 0
FLAG 656 80 0
SYMBOL zener -48 -32 R180
WINDOW 0 28 71 Left 2
WINDOW 3 -156 69 Left 2
SYMATTR InstName D5
SYMATTR Value BZX84B12VLY
SYMATTR Description Diode
SYMATTR Type diode
SYMBOL polcap -288 -80 R0
WINDOW 3 24 56 Left 2
SYMATTR Value 100µ
SYMATTR InstName C2
SYMATTR Description Capacitor
SYMATTR Type cap
SYMATTR SpiceLine V=16 Irms=280m Rser=0.11 Lser=3.5n mfg="Würth Elektronik" pn="860040373002 WCAP-ATUL 6,3x11" type="Al electrolytic"
SYMBOL cap 48 0 R90
WINDOW 0 0 32 VBottom 2
WINDOW 3 32 32 VTop 2
SYMATTR InstName C3
SYMATTR Value 0.22µ
SYMATTR SpiceLine V=400 Irms=0 Rser=0.0381 Lser=11.951n mfg="Würth Elektronik" pn="890283425002CS WCAP-FTBE 15 x 18 x 11 x 5" type="Box"
SYMBOL diode -192 32 R270
WINDOW 0 32 32 VTop 2
WINDOW 3 0 32 VBottom 2
SYMATTR InstName D4
SYMATTR Value 1N4148
SYMBOL voltage 752 -144 R0
WINDOW 123 0 0 Left 0
WINDOW 39 0 0 Left 0
SYMATTR InstName V1
SYMATTR Value SINE(0 311.127 50)
SYMBOL res 1232 -336 R0
SYMATTR InstName RL
SYMATTR Value 1k2
SYMBOL ind 1232 -176 R0
SYMATTR InstName L2
SYMATTR Value 5H
SYMBOL voltage 608 112 R0
WINDOW 123 0 0 Left 0
WINDOW 39 0 0 Left 0
SYMATTR InstName V2
SYMATTR Value PULSE(12 0 145m 10u 10u 10m 300)
SYMBOL sw 688 16 M270
WINDOW 0 35 23 VLeft 2
WINDOW 3 36 120 VLeft 2
SYMATTR InstName S1
SYMATTR Value MySW
SYMBOL res 160 0 R90
WINDOW 0 0 56 VBottom 2
WINDOW 3 32 56 VTop 2
SYMATTR InstName R1
SYMATTR Value 130R
SYMBOL res 272 0 R90
WINDOW 0 0 56 VBottom 2
WINDOW 3 32 56 VTop 2
SYMATTR InstName R2
SYMATTR Value 130R
SYMBOL res 384 0 R90
WINDOW 0 0 56 VBottom 2
WINDOW 3 32 56 VTop 2
SYMATTR InstName R3
SYMATTR Value 130R
SYMBOL res 496 0 R90
WINDOW 0 0 56 VBottom 2
WINDOW 3 32 56 VTop 2
SYMATTR InstName R4
SYMATTR Value 130R
TEXT -16 -272 Left 2 !.tran 0 300ms 0 1ms
TEXT -16 -344 Left 2 !.include lib/sub/thyristr.lib
TEXT -16 -416 Left 2 !.include lib/sub/CD4000.lib
TEXT -16 -448 Left 2 !.sympath lib/sym
TEXT 1160 -200 Left 2 ;Load
TEXT 696 56 Left 2 !.model MYSW SW(Ron=1 Roff=1Meg Vt=.5 Vh=-.4)
