Version 4
SHEET 1 880 680
WIRE 240 64 192 64
WIRE 352 64 320 64
WIRE 192 96 192 64
WIRE -80 112 -112 112
WIRE 48 112 0 112
WIRE 144 112 48 112
WIRE 352 144 352 64
WIRE 144 160 112 160
WIRE 112 192 112 160
WIRE 112 192 48 192
WIRE -112 208 -112 112
WIRE 192 208 192 176
WIRE 112 240 112 192
WIRE 352 256 352 224
WIRE -112 336 -112 288
FLAG -112 336 0
FLAG 112 240 0
FLAG 352 256 0
FLAG 192 208 0
SYMBOL sw 192 192 M180
WINDOW 0 46 17 Right 2
WINDOW 3 53 101 Right 2
SYMATTR InstName S1
SYMATTR Value MYSW
SYMBOL res 336 48 R90
WINDOW 0 0 56 VBottom 2
WINDOW 3 32 56 VTop 2
SYMATTR InstName R1
SYMATTR Value 1K
SYMBOL voltage 352 128 R0
WINDOW 123 0 0 Left 0
WINDOW 39 0 0 Left 0
SYMATTR InstName V2
SYMATTR Value 3.3
SYMBOL voltage -112 192 R0
WINDOW 123 0 0 Left 0
WINDOW 39 0 0 Left 0
SYMATTR InstName V1
SYMATTR Value 5
SYMBOL res 16 96 R90
WINDOW 0 0 56 VBottom 2
WINDOW 3 32 56 VTop 2
SYMATTR InstName R2
SYMATTR Value {RSW}
SYMBOL res 32 96 R0
SYMATTR InstName R3
TEXT -32 384 Left 2 !.model MYSW SW(Ron=1 Roff=1Meg Vt=.5 Vh=-.4)
TEXT -32 416 Left 2 !.tran 0 2ms 0 1u
TEXT -32 448 Left 2 !.step param RSW 0.0000000001 1e6 111111.111
