Version 4
SHEET 1 2868 680
WIRE 2096 -192 -16 -192
WIRE 192 -48 192 -64
WIRE 304 -48 192 -48
WIRE 400 -48 304 -48
WIRE 400 -32 400 -48
WIRE 304 -16 304 -48
WIRE 352 -16 304 -16
WIRE 352 32 304 32
WIRE 2592 32 2096 32
WIRE 304 64 304 32
WIRE 912 64 592 64
WIRE -16 96 -16 -192
WIRE 912 96 896 96
WIRE 2096 96 2096 32
WIRE 192 112 192 -48
WIRE 2800 144 2800 -128
WIRE 1024 160 1024 80
WIRE 1024 160 928 160
WIRE 896 176 896 96
WIRE 1088 176 896 176
WIRE 1152 176 1088 176
WIRE 2048 176 2048 160
WIRE 2048 176 1232 176
WIRE 192 192 192 176
WIRE 304 192 304 144
WIRE 304 192 192 192
WIRE 400 192 400 48
WIRE 400 192 304 192
WIRE 464 192 400 192
WIRE 592 192 592 64
WIRE 624 192 592 192
WIRE 2864 192 2864 160
WIRE 2864 192 2832 192
WIRE -16 208 -16 176
WIRE 64 208 -16 208
WIRE 192 208 192 192
WIRE 192 208 128 208
WIRE 592 208 592 192
WIRE 592 208 576 208
WIRE 768 208 736 208
WIRE 880 208 848 208
WIRE 192 224 192 208
WIRE 464 224 192 224
WIRE 592 224 592 208
WIRE 624 224 592 224
WIRE 2832 224 2832 192
WIRE 2832 224 2800 224
WIRE 2096 240 2096 160
WIRE 2096 240 1328 240
WIRE -16 256 -16 208
WIRE 192 256 192 224
WIRE 2592 256 2592 32
WIRE 928 304 928 160
WIRE 960 304 928 304
WIRE 1088 320 1088 176
WIRE 1088 320 1040 320
WIRE 1328 320 1328 240
WIRE 1536 320 1328 320
WIRE 736 336 736 208
WIRE 784 336 736 336
WIRE 848 336 832 336
WIRE 880 336 880 208
WIRE 880 336 848 336
WIRE 928 336 880 336
WIRE 960 336 928 336
WIRE 2096 336 2096 240
WIRE 1536 368 1536 320
WIRE 880 384 880 336
WIRE 1328 384 1328 320
WIRE 1760 384 1760 336
WIRE 1840 384 1840 336
WIRE 2592 400 2592 336
WIRE 1760 432 1760 384
WIRE 1840 432 1840 384
WIRE -16 480 -16 336
WIRE 192 480 192 336
WIRE 192 480 -16 480
WIRE 880 480 880 448
WIRE 880 480 192 480
WIRE 1328 480 1328 448
WIRE 1328 480 880 480
WIRE 1408 480 1328 480
WIRE 1536 480 1536 432
WIRE 1536 480 1472 480
WIRE 1648 480 1536 480
WIRE 1760 480 1760 432
WIRE 1760 480 1712 480
WIRE 1840 480 1840 432
WIRE 2096 480 2096 416
WIRE 2096 480 1840 480
WIRE 2592 480 2096 480
WIRE 2800 480 2800 224
WIRE 2800 480 2688 480
WIRE 2096 528 2096 480
FLAG 192 -64 VCC
IOPIN 192 -64 In
FLAG 1536 320 VCC
IOPIN 1536 320 In
FLAG 2096 240 VCC
IOPIN 2096 240 Out
FLAG 2096 528 0
SYMBOL res -32 80 R0
SYMATTR InstName R1
SYMATTR Value 220K
SYMBOL res -32 240 R0
SYMATTR InstName R2
SYMATTR Value 15K
SYMBOL diode 64 224 R270
WINDOW 0 32 32 VTop 2
WINDOW 3 0 32 VBottom 2
SYMATTR InstName D1
SYMATTR Value 1N4148
SYMBOL res 176 240 R0
SYMATTR InstName R3
SYMATTR Value 3m3
SYMBOL res 864 192 R90
WINDOW 0 0 56 VBottom 2
WINDOW 3 32 56 VTop 2
SYMATTR InstName R4
SYMATTR Value 3m3
SYMBOL polcap 864 384 R0
WINDOW 3 24 56 Left 2
SYMATTR Value 100µ
SYMATTR InstName C1
SYMATTR Description Capacitor
SYMATTR Type cap
SYMATTR SpiceLine V=16 Irms=280m Rser=0.11 Lser=3.5n mfg="Würth Elektronik" pn="860040373002 WCAP-ATUL 6,3x11" type="Al electrolytic"
SYMBOL res 1248 160 R90
WINDOW 0 0 56 VBottom 2
WINDOW 3 32 56 VTop 2
SYMATTR InstName R5
SYMATTR Value 1k8
SYMBOL Misc\\TRIAC 2064 96 R0
SYMATTR InstName U1
SYMATTR Value MAC97A8
SYMBOL zener 1552 432 R180
WINDOW 0 28 71 Left 2
WINDOW 3 -156 69 Left 2
SYMATTR InstName D5
SYMATTR Value BZX84B12VLY
SYMATTR Description Diode
SYMATTR Type diode
SYMBOL res 1856 368 R90
WINDOW 0 29 -12 VBottom 2
WINDOW 3 0 121 VTop 2
SYMATTR InstName R6
SYMATTR Value 2k
SYMBOL res 1856 320 R90
WINDOW 0 33 -9 VBottom 2
WINDOW 3 0 122 VTop 2
SYMATTR InstName R7
SYMATTR Value 2k
SYMBOL res 1856 416 R90
WINDOW 0 27 -12 VBottom 2
WINDOW 3 0 121 VTop 2
SYMATTR InstName R8
SYMATTR Value 2k
SYMBOL res 1856 464 R90
WINDOW 0 25 -14 VBottom 2
WINDOW 3 0 121 VTop 2
SYMATTR InstName R9
SYMATTR Value 2k
SYMBOL polcap 1312 384 R0
WINDOW 3 24 56 Left 2
SYMATTR Value 100µ
SYMATTR InstName C2
SYMATTR Description Capacitor
SYMATTR Type cap
SYMATTR SpiceLine V=16 Irms=280m Rser=0.11 Lser=3.5n mfg="Würth Elektronik" pn="860040373002 WCAP-ATUL 6,3x11" type="Al electrolytic"
SYMBOL cap 1712 464 R90
WINDOW 0 0 32 VBottom 2
WINDOW 3 32 32 VTop 2
SYMATTR InstName C3
SYMATTR Value 0.22µ
SYMATTR SpiceLine V=400 Irms=0 Rser=0.0381 Lser=11.951n mfg="Würth Elektronik" pn="890283425002CS WCAP-FTBE 15 x 18 x 11 x 5" type="Box"
SYMBOL diode 208 176 R180
WINDOW 0 21 102 Left 2
WINDOW 3 20 65 Left 2
SYMATTR InstName D2
SYMATTR Value 1N4148
SYMBOL diode 784 352 R270
WINDOW 0 32 32 VTop 2
WINDOW 3 0 32 VBottom 2
SYMATTR InstName D3
SYMATTR Value 1N4148
SYMBOL diode 1408 496 R270
WINDOW 0 32 32 VTop 2
WINDOW 3 0 32 VBottom 2
SYMATTR InstName D4
SYMATTR Value 1N4148
SYMBOL sw 400 64 M180
SYMATTR InstName S1
SYMATTR Value MySw
SYMBOL res 288 48 R0
SYMATTR InstName Rsw
SYMATTR Value {RSW}
SYMBOL voltage 2096 320 R0
WINDOW 123 0 0 Left 0
WINDOW 39 0 0 Left 0
SYMATTR InstName V1
SYMATTR Value SINE(0 311.127 50)
SYMBOL res 2576 240 R0
SYMATTR InstName RL
SYMATTR Value 1k2
SYMBOL ind 2576 384 R0
SYMATTR InstName L2
SYMATTR Value 5H
SYMBOL CD4093B 512 144 R0
SYMATTR InstName U2
SYMATTR SpiceLine VDD=12 SPEED=1.0 TRIPDT=5e-9
SYMBOL CD4093B 672 144 R0
SYMATTR InstName U3
SYMATTR SpiceLine VDD=12 SPEED=1.0 TRIPDT=5e-9
SYMBOL CD4093B 960 16 R0
SYMATTR InstName U4
SYMATTR SpiceLine VDD=12 SPEED=1.0 TRIPDT=5e-9
SYMBOL CD4093B 976 256 R0
SYMATTR InstName U5
SYMATTR SpiceLine VDD=12 SPEED=1.0 TRIPDT=5e-9
TEXT -16 -392 Left 2 !.model MySw SW(Ron=1 Roff=1Meg Vt=2.5 Vh=0)
TEXT -16 -360 Left 2 !.step param RSW list 1 1e6
TEXT -16 -328 Left 2 !.tran 1
TEXT -16 -504 Left 2 !.include lib/sub/thyristr.lib
TEXT -16 -576 Left 2 !.include lib/sub/CD4000.lib
TEXT -16 -608 Left 2 !.sympath lib/sym
TEXT 2248 -192 Left 2 ;Dobavi kluch mezhdu zemq i gore da se oprawqlqwa
