Version 4
SHEET 1 880 680
WIRE 416 -48 272 -48
WIRE 720 -48 416 -48
WIRE 544 -16 144 -16
WIRE 720 -16 720 -48
WIRE 144 32 144 -16
WIRE 416 64 416 -48
WIRE 272 160 272 -48
WIRE 720 160 720 64
WIRE 832 160 720 160
WIRE 0 176 -160 176
WIRE 144 176 144 112
WIRE 144 176 80 176
WIRE 240 176 144 176
WIRE 352 192 352 112
WIRE 352 192 304 192
WIRE 240 208 144 208
WIRE 416 208 416 160
WIRE 544 208 544 -16
WIRE 544 208 416 208
WIRE 576 208 544 208
WIRE 592 208 576 208
WIRE 576 240 576 208
WIRE 416 256 416 208
WIRE -160 272 -160 176
WIRE 144 272 144 208
WIRE 720 272 720 160
WIRE 352 304 352 192
WIRE 272 368 272 224
WIRE 416 368 416 352
WIRE 416 368 272 368
WIRE 720 368 720 352
WIRE 720 368 416 368
WIRE -160 416 -160 352
WIRE 144 416 144 352
WIRE 144 416 -160 416
WIRE 256 416 144 416
WIRE 576 416 576 320
WIRE 576 416 256 416
WIRE 832 416 832 160
WIRE 832 416 576 416
WIRE 256 480 256 416
FLAG 256 480 0
FLAG 592 208 Out
IOPIN 592 208 Out
SYMBOL OpAmps\\UniversalOpAmp2 272 192 R0
SYMATTR InstName U1
SYMBOL npn 352 64 R0
SYMATTR InstName Q1
SYMATTR Value 2N2222
SYMBOL pnp 352 352 M180
SYMATTR InstName Q2
SYMATTR Value 2N2907
SYMBOL res 128 16 R0
SYMATTR InstName R1
SYMATTR Value 100k
SYMBOL res 128 256 R0
SYMATTR InstName R3
SYMATTR Value 10k
SYMBOL res 96 160 R90
WINDOW 0 0 56 VBottom 2
WINDOW 3 32 56 VTop 2
SYMATTR InstName R2
SYMATTR Value 10k
SYMBOL voltage -160 256 R0
WINDOW 123 24 124 Left 2
WINDOW 39 0 0 Left 0
SYMATTR InstName V1
SYMATTR Value ""
SYMATTR Value2 AC 1
SYMBOL voltage 720 256 R0
WINDOW 123 0 0 Left 0
WINDOW 39 0 0 Left 0
SYMATTR InstName V2
SYMATTR Value 15
SYMBOL voltage 720 -32 R0
WINDOW 123 0 0 Left 0
WINDOW 39 0 0 Left 0
SYMATTR InstName V3
SYMATTR Value 15
SYMBOL res 560 224 R0
SYMATTR InstName R4
SYMATTR Value 1k
